FoamFile
{
    version     2.0;
    format      ascii;
    class       dictionary;
    object      controlDict;
}

application     interFoam;
startFrom       latestTime;
startTime       0;
stopAt          endTime;
endTime         0.15;
deltaT          1e-4;
writeControl    adjustableRunTime;
writeInterval   0.05;
purgeWrite      5;
writeFormat     ascii;
writePrecision  6;
writeCompression off;
timeFormat      general;
timePrecision   6;
runTimeModifiable yes;

adjustTimeStep  yes;
maxCo           0.5;
maxAlphaCo      0.25;
maxDeltaT       0.005;

functions
{
    fieldAverage1
    {
        type            fieldAverage;
        libs            (fieldFunctionObjects);
        writeControl    writeTime;
        fields
        (
            U
            {
                mean        on;
                prime2Mean  off;
                base        time;
            }
            alpha.water
            {
                mean        on;
                prime2Mean  off;
                base        time;
            }
        );
    }
}
